*Heading
** Job name: load_case_0_impulse_piezo_0 Model name: guw_model
** Generated by: Abaqus/CAE Learning Edition 2023
*Preprint, echo=NO, model=NO, history=NO, contact=NO
**
** PARTS
**
*Part, name=plate
*Node
      1,           0., 0.0153846154, 0.00300000003
      2, 0.0076923077, 0.0153846154, 0.00300000003
      3, 0.0076923077, 0.0230769236, 0.00300000003
      4, 0.0076923077, 0.0384615399, 0.00300000003
      5,           0., 0.0384615399, 0.00300000003
      6, 0.0076923077, 0.0153846154,           0.
      7, 0.0076923077, 0.0230769236,           0.
      8, 0.0076923077, 0.0384615399,           0.
      9,           0., 0.0384615399,           0.
     10,           0., 0.0153846154,           0.
     11,           0.,           0., 0.00300000003
     12, 0.0307692308,           0., 0.00300000003
     13, 0.0230769236, 0.0153846154, 0.00300000003
     14, 0.0307692308, 0.0153846154, 0.00300000003
     15,           0.,           0.,           0.
     16, 0.0307692308,           0.,           0.
     17, 0.0307692308, 0.0153846154,           0.
     18, 0.0230769236, 0.0153846154,           0.
     19, 0.0307692308, 0.0384615399,           0.
     20, 0.0461538471, 0.0384615399,           0.
** ... 721 like lines cut
*Element, type=C3D8R
1,  80,  82, 279, 276,   1,   2,  69,  73
2, 276, 279,  81, 277,  73,  69,   3,  72
3, 277,  81, 280, 278,  72,   3,  70,  71
4, 278, 280,  83,  79,  71,  70,   4,   5
5,  10,   6,  74,  76,  80,  82, 279, 276
6,  76,  74,   7,  77, 276, 279,  81, 277
7,  77,   7,  75,  78, 277,  81, 280, 278
8,  78,  75,   8,   9, 278, 280,  83,  79
 9,  80, 295, 615,  82,   1,  84, 281,   2
10, 295, 103, 291, 615,  84,  11,  85, 281
11,  82, 615, 616, 290,   2, 281, 282,  90
12, 615, 291, 292, 616, 281,  85,  86, 282
13, 290, 616, 617, 100,  90, 282, 283,  13
14, 616, 292, 293, 617, 282,  86,  87, 283
15, 100, 617, 618, 289,  13, 283, 284,  91
16, 617, 293, 294, 618, 283,  87,  88, 284
17, 289, 618, 296, 101,  91, 284,  89,  14
18, 618, 294, 102, 296, 284,  88,  12,  89
19,  10,  92, 285,   6,  80, 295, 615,  82
20,  92,  15,  96, 285, 295, 103, 291, 615
** ... 408 like lines cut
*Nset, nset=plate-material, generate
   1,  741,    1
*Elset, elset=plate-material, generate
   1,  428,    1
*Nset, nset=plate-field-output
   1,   2,   3,   4,   5,  11,  12,  13,  14,  21,  22,  23,  24,  27,  28,  29
  32,  33,  35,  36,  37,  38,  41,  42,  43,  44,  48,  49,  50,  55,  56,  57
  58,  59,  62,  63,  65,  66,  68,  69,  70,  71,  72,  73,  84,  85,  86,  87
  88,  89,  90,  91, 110, 111, 112, 126, 127, 128, 129, 130, 131, 132, 133, 134
 137, 139, 140, 141, 142, 143, 149, 150, 151, 152, 161, 162, 163, 164, 165, 166
 167, 168, 169, 170, 171, 187, 188, 189, 190, 191, 192, 193, 194, 229, 230, 231
 232, 233, 234, 235, 236, 237, 238, 239, 240, 241, 242, 243, 244, 245, 246, 247
 248, 249, 252, 253, 259, 260, 261, 265, 266, 267, 268, 272, 273, 275, 281, 282
 283, 284, 357, 358, 359, 360, 361, 362, 363, 364, 365, 366, 367, 368, 369, 370
 371, 372, 373, 374, 375, 376, 377, 378, 379, 380, 381, 382, 383, 384, 385, 386
 387, 388, 389, 390, 391, 392, 393, 394, 395, 396, 403, 404, 405, 406, 407, 408
 409, 410, 411, 412, 413, 414, 439, 440, 441, 442, 443, 444, 445, 446, 447, 518
 519, 520, 521, 522, 523, 524, 525, 526, 527, 528, 529, 530, 531, 532, 533, 534
 535, 536, 537, 538, 539, 540, 541, 542, 543, 544, 545, 546, 547, 548, 549, 550
 551, 552, 553, 554, 555, 556, 557, 558, 559, 560, 561, 562, 563, 564, 565, 566
 567, 568, 569, 600, 604, 605, 614
*Elset, elset=plate-field-output
   1,   2,   3,   4,   9,  10,  11,  12,  13,  14,  15,  16,  17,  18,  38,  39
  40,  41,  42,  43,  44,  45,  46,  56,  57,  58,  59,  60,  61,  62,  63,  64
  74,  75,  76,  77,  78,  79,  80,  81,  82,  92,  93,  94,  95,  96,  97,  98
  99, 100, 110, 111, 112, 113, 114, 115, 116, 117, 118, 128, 129, 130, 131, 132
 133, 134, 135, 136, 137, 138, 139, 140, 145, 146, 147, 148, 149, 150, 151, 152
 153, 154, 155, 156, 157, 158, 159, 160, 161, 162, 163, 164, 185, 186, 187, 188
 189, 190, 191, 192, 193, 194, 195, 196, 197, 198, 199, 200, 287, 288, 289, 290
 291, 292, 293, 294, 295, 296, 297, 298, 299, 300, 301, 302, 303, 304, 305, 306
 307, 308, 309, 310, 311, 312, 313, 314, 315, 316, 317, 318, 319, 320, 321, 322
 323, 324, 325, 326, 327, 328, 329, 330, 331, 332, 333, 334, 335, 336, 337, 338
 339, 340, 341, 342, 343, 344, 345, 346, 347, 348, 349, 350, 351, 352, 353, 354
 355, 356, 359, 360, 363, 364, 367, 368, 371, 372, 378, 379, 380, 381, 382, 388
 389, 390, 391, 392, 393, 394, 395, 396, 397, 403, 404, 405, 406, 407, 408, 409
 410, 424, 425, 426, 427, 428
*Nset, nset=hole_01_bound_box
   2,   3,   4,   6,   7,   8,  13,  14,  17,  18,  19,  23,  33,  34,  41,  45
  60,  61,  62,  63,  64,  65,  66,  67,  69,  70,  74,  75,  81,  82,  83,  90
  91,  98,  99, 100, 101, 106, 134, 135, 136, 137, 138, 161, 162, 172, 173, 186
 254, 255, 256, 257, 258, 259, 260, 261, 262, 263, 264, 265, 266, 267, 268, 269
 270, 271, 274, 275, 279, 280, 289, 290, 310, 311, 433, 434, 596, 597, 598, 599
 600, 601, 602, 603, 604, 605, 606, 607, 608, 612, 613, 614, 735, 736, 737, 741
*Elset, elset=hole_01_bound_box
 373, 374, 375, 376, 377, 378, 379, 380, 381, 382, 383, 384, 385, 386, 387, 388
 389, 390, 391, 392, 393, 394, 395, 396, 397, 398, 399, 400, 401, 402, 419, 420
 421, 422, 423, 424, 425, 426, 427, 428
*Nset, nset=transducer_01_bound_box
  24,  25,  26,  27,  28,  35,  36,  39,  49,  50,  52,  58,  68, 107, 108, 109
 149, 150, 153, 154, 155, 160, 193, 194, 201, 202, 203, 204, 228, 272, 273, 298
 400, 401, 402, 457, 458, 459, 571, 609, 610, 611, 738, 739, 740
*Elset, elset=transducer_01_bound_box, generate
 403,  418,    1
*Nset, nset=transducer_01
 68,
*Nset, nset=plate-top-surface
   1,   2,   3,   4,   5,  11,  12,  13,  14,  21,  22,  23,  24,  27,  28,  29
  32,  33,  35,  36,  37,  38,  41,  42,  43,  44,  48,  49,  50,  55,  56,  57
  58,  69,  70,  71,  72,  73,  84,  85,  86,  87,  88,  89,  90,  91, 110, 111
 112, 126, 127, 128, 129, 130, 131, 132, 133, 134, 137, 139, 140, 141, 142, 143
 149, 150, 151, 152, 161, 162, 163, 164, 165, 166, 167, 168, 169, 170, 171, 187
 188, 189, 190, 191, 192, 193, 194, 229, 230, 231, 232, 233, 234, 235, 236, 237
 238, 239, 240, 241, 242, 243, 244, 245, 246, 247, 248, 249, 281, 282, 283, 284
 357, 358, 359, 360, 361, 362, 363, 364, 365, 366, 367, 368, 369, 370, 371, 372
 373, 374, 375, 376, 377, 378, 379, 380, 381, 382, 383, 384, 385, 386, 387, 388
 389, 390, 391, 392, 393, 394, 395, 396, 403, 404, 405, 406, 407, 408, 409, 410
 411, 412, 413, 414, 439, 440, 441, 442, 443, 444, 445, 446, 447, 518, 519, 520
 521, 522, 523, 524, 525, 526, 527, 528, 529, 530, 531, 532, 533, 534, 535, 536
 537, 538, 539, 540, 541, 542, 543, 544, 545, 546, 547, 548, 549, 550, 551, 552
 553, 554, 555, 556, 557, 558, 559, 560, 561, 562, 563, 564, 565, 566, 567, 568
 569,
*Elset, elset=plate-top-surface
   1,   2,   3,   4,   9,  10,  11,  12,  13,  14,  15,  16,  17,  18,  38,  39
  40,  41,  42,  43,  44,  45,  46,  56,  57,  58,  59,  60,  61,  62,  63,  64
  74,  75,  76,  77,  78,  79,  80,  81,  82,  92,  93,  94,  95,  96,  97,  98
  99, 100, 110, 111, 112, 113, 114, 115, 116, 117, 118, 128, 129, 130, 131, 132
 133, 134, 135, 136, 137, 138, 139, 140, 145, 146, 147, 148, 149, 150, 151, 152
 153, 154, 155, 156, 157, 158, 159, 160, 161, 162, 163, 164, 185, 186, 187, 188
 189, 190, 191, 192, 193, 194, 195, 196, 197, 198, 199, 200, 287, 288, 289, 290
 291, 292, 293, 294, 295, 296, 297, 298, 299, 300, 301, 302, 303, 304, 305, 306
 307, 308, 309, 310, 311, 312, 313, 314, 315, 316, 317, 318, 319, 320, 321, 322
 323, 324, 325, 326, 327, 328, 329, 330, 331, 332, 333, 334, 335, 336, 337, 338
 339, 340, 341, 342, 343, 344, 345, 346, 347, 348, 349, 350, 351, 352, 353, 354
 355, 356
*Nset, nset=transducer_02_bound_box
  19,  20,  21,  22,  23,  37,  38,  40,  42,  43,  46,  57,  59, 104, 105, 106
 151, 152, 156, 157, 158, 159, 163, 164, 174, 175, 176, 185, 227, 252, 253, 297
 397, 398, 399, 430, 431, 432, 570, 593, 594, 595, 732, 733, 734
*Elset, elset=transducer_02_bound_box, generate
 357,  372,    1
*Nset, nset=plate
   1,   2,   3,   4,   5,   6,   7,   8,   9,  10,  11,  12,  13,  14,  15,  16
  17,  18,  19,  20,  21,  22,  23,  24,  25,  26,  27,  28,  29,  30,  31,  32
  33,  34,  35,  36,  37,  38,  39,  40,  41,  42,  43,  44,  45,  46,  47,  48
  49,  50,  51,  52,  53,  54,  55,  56,  57,  58,  69,  70,  71,  72,  73,  74
  75,  76,  77,  78,  79,  80,  81,  82,  83,  84,  85,  86,  87,  88,  89,  90
  91,  92,  93,  94,  95,  96,  97,  98,  99, 100, 101, 102, 103, 104, 105, 106
 107, 108, 109, 110, 111, 112, 113, 114, 115, 116, 117, 118, 119, 120, 121, 122
 123, 124, 125, 126, 127, 128, 129, 130, 131, 132, 133, 134, 135, 136, 137, 138
 139, 140, 141, 142, 143, 144, 145, 146, 147, 148, 149, 150, 151, 152, 153, 154
 155, 156, 157, 158, 159, 160, 161, 162, 163, 164, 165, 166, 167, 168, 169, 170
 171, 172, 173, 174, 175, 176, 177, 178, 179, 180, 181, 182, 183, 184, 185, 186
 187, 188, 189, 190, 191, 192, 193, 194, 195, 196, 197, 198, 199, 200, 201, 202
 203, 204, 205, 206, 207, 208, 209, 210, 211, 212, 213, 214, 215, 216, 217, 218
 219, 220, 221, 222, 223, 224, 225, 226, 227, 228, 229, 230, 231, 232, 233, 234
 235, 236, 237, 238, 239, 240, 241, 242, 243, 244, 245, 246, 247, 248, 249, 250
 251, 276, 277, 278, 279, 280, 281, 282, 283, 284, 285, 286, 287, 288, 289, 290
 291, 292, 293, 294, 295, 296, 297, 298, 299, 300, 301, 302, 303, 304, 305, 306
 307, 308, 309, 310, 311, 312, 313, 314, 315, 316, 317, 318, 319, 320, 321, 322
 323, 324, 325, 326, 327, 328, 329, 330, 331, 332, 333, 334, 335, 336, 337, 338
 339, 340, 341, 342, 343, 344, 345, 346, 347, 348, 349, 350, 351, 352, 353, 354
** ... 23 like lines cut
*Elset, elset=plate, generate
   1,  356,    1
*Nset, nset=transducer_02
 59,
** Region: (plate-material_continuum_section_homogenous_AluminumAlloy1100:plate-material)
*Elset, elset=_I1, internal, generate
   1,  428,    1
** Section: plate-material_continuum_section_homogenous_AluminumAlloy1100
*Solid Section, elset=_I1, material=AluminumAlloy1100
,
*End Part
**  
**
** ASSEMBLY
**
*Assembly, name=Assembly
**  
*Instance, name=plate, part=plate
*End Instance
**  
*End Assembly
*Amplitude, name=piezo_0_DiracImpulse
             0.,              1.,           1e-08,              0.
** 
** MATERIALS
** 
*Material, name=AluminumAlloy1100
*Density
2710.,
*Elastic
 6.9e+10, 0.33
** ----------------------------------------------------------------
** 
** STEP: load_case_0_impulse_piezo_0
** 
*Step, name=load_case_0_impulse_piezo_0, nlgeom=NO
*Dynamic, Explicit
, 0.003,, 1e-06
*Bulk Viscosity
0.06, 1.2
** 
** LOADS
** 
** Name: piezo_0_DiracImpulse   Type: Concentrated force
*Cload, amplitude=piezo_0_DiracImpulse
plate.transducer_01, 3, 1.
** 
** OUTPUT REQUESTS
** 
*Restart, write, number interval=1, time marks=NO
*Output, field, number interval=0
** 
** HISTORY OUTPUT: history_transducer_0
** 
*Output, history, frequency=1
*Node Output, nset=plate.transducer_01
U1, U2, U3
** 
** HISTORY OUTPUT: history_transducer_1
** 
*Node Output, nset=plate.transducer_02
U1, U2, U3
** 
** HISTORY OUTPUT: H-Output-1
** 
*Output, history, variable=PRESELECT
*End Step
